N-Acetylserotonin
 OpenBabel07142112163D

 30 31  0  0  0  0  0  0  0  0999 V2000
   10.8496   -0.9097   23.3992 C   0  0  0  0  0  0  0  0  0  0  0  0
   11.7349   -1.5828   22.5525 C   0  0  0  0  0  0  0  0  0  0  0  0
   13.0436    0.4358   22.2211 C   0  0  0  0  0  0  0  0  0  0  0  0
   10.9953    2.5796   24.3586 C   0  0  0  0  0  0  0  0  0  0  0  0
   12.1644    1.1353   23.0714 C   0  0  0  0  0  0  0  0  0  0  0  0
   12.0921    2.4791   23.5340 C   0  0  0  0  0  0  0  0  0  0  0  0
   11.0898    0.4478   23.6397 C   0  0  0  0  0  0  0  0  0  0  0  0
   12.8157   -0.9224   21.9714 C   0  0  0  0  0  0  0  0  0  0  0  0
   10.3014    6.1232   23.4762 C   0  0  0  0  0  0  0  0  0  0  0  0
    9.0908    6.3113   22.6233 C   0  0  0  0  0  0  0  0  0  0  0  0
   13.0216    3.5761   23.1975 C   0  0  0  0  0  0  0  0  0  0  0  0
   12.5049    4.9756   23.5778 C   0  0  0  0  0  0  0  0  0  0  0  0
   10.3974    1.3493   24.4163 N   0  0  0  0  0  0  0  0  0  0  0  0
   11.2623    5.2905   22.9254 N   0  0  0  0  0  0  0  0  0  0  0  0
   10.3708    6.6904   24.5602 O   0  0  0  0  0  0  0  0  0  0  0  0
   13.6625   -1.6057   21.1506 O   0  0  0  0  0  0  0  0  0  0  0  0
   10.0082   -1.4247   23.8507 H   0  0  0  0  0  0  0  0  0  0  0  0
   11.5705   -2.6382   22.3478 H   0  0  0  0  0  0  0  0  0  0  0  0
   13.8895    0.9420   21.7638 H   0  0  0  0  0  0  0  0  0  0  0  0
   10.5859    3.4149   24.9095 H   0  0  0  0  0  0  0  0  0  0  0  0
    8.3103    5.5615   22.8298 H   0  0  0  0  0  0  0  0  0  0  0  0
    8.6076    7.2876   22.7886 H   0  0  0  0  0  0  0  0  0  0  0  0
    9.2662    6.2552   21.5370 H   0  0  0  0  0  0  0  0  0  0  0  0
   13.2316    3.5763   22.1096 H   0  0  0  0  0  0  0  0  0  0  0  0
   14.0127    3.4244   23.6709 H   0  0  0  0  0  0  0  0  0  0  0  0
   12.3230    5.0477   24.6548 H   0  0  0  0  0  0  0  0  0  0  0  0
   13.2285    5.7495   23.3013 H   0  0  0  0  0  0  0  0  0  0  0  0
    9.5673    1.1333   24.9509 H   0  0  0  0  0  0  0  0  0  0  0  0
   11.0792    4.8802   22.0110 H   0  0  0  0  0  0  0  0  0  0  0  0
   14.3605   -1.0165   20.8248 H   0  0  0  0  0  0  0  0  0  0  0  0
  1  2  2  0  0  0  0
  1  7  1  0  0  0  0
  1 17  1  0  0  0  0
  2  8  1  0  0  0  0
  2 18  1  0  0  0  0
  3  5  1  0  0  0  0
  3  8  2  0  0  0  0
  3 19  1  0  0  0  0
  4  6  2  0  0  0  0
  4 13  1  0  0  0  0
  4 20  1  0  0  0  0
  5  6  1  0  0  0  0
  5  7  2  0  0  0  0
  6 11  1  0  0  0  0
  7 13  1  0  0  0  0
  8 16  1  0  0  0  0
  9 10  1  0  0  0  0
  9 14  1  0  0  0  0
  9 15  2  0  0  0  0
 10 21  1  0  0  0  0
 10 22  1  0  0  0  0
 10 23  1  0  0  0  0
 11 12  1  0  0  0  0
 11 24  1  0  0  0  0
 11 25  1  0  0  0  0
 12 14  1  0  0  0  0
 12 26  1  0  0  0  0
 12 27  1  0  0  0  0
 13 28  1  0  0  0  0
 14 29  1  0  0  0  0
 16 30  1  0  0  0  0
M  END
$$$$
